<?xml version="1.0" encoding="utf-8"?>
<FrameLayout xmlns:android="http://schemas.android.com/apk/res/android"
    android:layout_width="match_parent"
    android:layout_height="match_parent">

    <net.ossrs.yasea.SrsCameraView
        android:id="@+id/srsLive"
        android:layout_width="match_parent"
        android:layout_height="match_parent" />

    <androidx.viewpager.widget.ViewPager
        android:id="@+id/vpLive"
        android:layout_width="match_parent"
        android:layout_height="match_parent" />

</FrameLayout>
